
 Fire Dynamics Simulator

 Current Date     : February 18, 2026  18:15:31
 Revision         : FDS-6.10.1-0-g12efa16-release
 Revision Date    : Wed Apr 2 17:38:58 2025 -0400
 Compiler         : Intel(R) Fortran Compiler for applications running on Intel(R) 64, Version 2025.1.0 Build 20250317
 Compilation Date : Fri-04/04/2025-08:57-AM

 Number of MPI Processes:  1
 Number of OpenMP Threads: 4

 MPI version: 3.1
 MPI library version: Intel(R) MPI Library 2021.6 for Windows* OS

 Hypre library version: v2.32.0
 Sundials library version: v6.7.0

 Job TITLE        : Generated Fire Scenario - Calibrated for Training Range
 Job ID string    : GEN_METHANE_large_20260218_181435


 Grid Dimensions, Mesh     1

   Cells in the X Direction            40
   Cells in the Y Direction            40
   Cells in the Z Direction            23
   Number of Grid Cells             36800


 Physical Dimensions, Mesh     1

   Length (m)                       4.000
   Width  (m)                       4.000
   Height (m)                       2.400

 Miscellaneous Parameters

   Total Number of Grid Cells       36800
   Maximum Cell Aspect Ratio        1.043
   Initial Time Step (s)            0.105
   CFL Velocity Norm                    2
   Simulation Start Time (s)          0.0
   Simulation End Time (s)           30.0
   Background Pressure (Pa)     101325.00
   Ambient Temperature (C)          20.00

   3D Cartesian
   VLES Calculation
   Eddy Viscosity Model:  Deardorff (C_DEARDORFF = 0.10)
   Surface INERT Eddy Viscosity Model:  WALE (C_WALE = 0.60)
   Surface FIRE_SOURCE Eddy Viscosity Model:  WALE (C_WALE = 0.60)
   Turbulent Prandtl Number:         0.50
   Turbulent Schmidt Number:         0.50


 Pressure solver information

   Solver:                            FFT
   Velocity tolerance (m/s):    5.071E-02
   Press eqn res tol (1/s^2):   1.944E+03
   Max pressure iterations:            10


 Background Stratification

      Z (m)     P_0 (Pa)    TMP_0 (C)
   ------------------------------------
        2.35    101297.48     20.00
        2.24    101298.70     20.00
        2.14    101299.92     20.00
        2.03    101301.15     20.00
        1.93    101302.37     20.00
        1.83    101303.59     20.00
        1.72    101304.81     20.00
        1.62    101306.04     20.00
        1.51    101307.26     20.00
        1.41    101308.48     20.00
        1.30    101309.71     20.00
        1.20    101310.93     20.00
        1.10    101312.15     20.00
        0.99    101313.38     20.00
        0.89    101314.60     20.00
        0.78    101315.82     20.00
        0.68    101317.04     20.00
        0.57    101318.27     20.00
        0.47    101319.49     20.00
        0.37    101320.71     20.00
        0.26    101321.94     20.00
        0.16    101323.16     20.00
        0.05    101324.38     20.00


 Mass Fraction Transformation Matrix to Convert Species Mixtures (Columns) to Primitive Species (Rows)

                         AIR       METHANE   PRODUCTS
   NITROGEN              0.762470  0.000000  0.720148
   OXYGEN                0.230997  0.000000  0.000000
   CARBON DIOXIDE        0.000591  0.000000  0.148355
   WATER VAPOR           0.005941  0.000000  0.130276
   CARBON MONOXIDE       0.000000  0.000000  0.000000
   SOOT                  0.000000  0.000000  0.001221
   HYDROGEN              0.000000  0.000000  0.000000
   HYDROGEN CYANIDE      0.000000  0.000000  0.000000
   METHANE               0.000000  1.000000  0.000000


 Primitive Species Information

   NITROGEN
   Gas Species
   Molecular Weight (g/mol)                28.01340
   Ambient Density (kg/m^3)                1.165
           Enthalpy of Formation (J/kg)  0.000E+00

   OXYGEN
   Gas Species
   Molecular Weight (g/mol)                31.99880
   Ambient Density (kg/m^3)                1.330
           Enthalpy of Formation (J/kg)  0.000E+00

   CARBON DIOXIDE
   Gas Species
   Molecular Weight (g/mol)                44.00950
   Ambient Density (kg/m^3)                1.830
           Enthalpy of Formation (J/kg) -8.941E+06

   WATER VAPOR
   Gas Species
   Molecular Weight (g/mol)                18.01528
   Ambient Density (kg/m^3)                0.749
           Enthalpy of Formation (J/kg) -1.342E+07

   CARBON MONOXIDE
   Gas Species
   Molecular Weight (g/mol)                28.01010
   Ambient Density (kg/m^3)                1.164
           Enthalpy of Formation (J/kg) -3.946E+06

   SOOT
   Gas Species
   Molecular Weight (g/mol)                12.01070
   Ambient Density (kg/m^3)                0.499
           Enthalpy of Formation (J/kg)  0.000E+00

   HYDROGEN
   Gas Species
   Molecular Weight (g/mol)                 2.01588
   Ambient Density (kg/m^3)                0.084
           Enthalpy of Formation (J/kg)  0.000E+00

   HYDROGEN CYANIDE
   Gas Species
   Molecular Weight (g/mol)                27.02534
   Ambient Density (kg/m^3)                1.123
           Enthalpy of Formation (J/kg)  4.924E+06

   METHANE
   Gas Species
   Molecular Weight (g/mol)                16.04246
   Ambient Density (kg/m^3)                0.667
           Enthalpy of Formation (J/kg) -4.650E+06


 Tracked (Lumped) Species Information

   AIR
   Molecular Weight (g/mol)            28.75198
   Ambient Density (kg/m^3)            1.195
   Initial Mass Fraction               1.000
   Enthalpy of Formation (J/kg)     -8.504E+04

   Sub Species                    Mass Fraction     Mole Fraction
   NITROGEN                       7.624699E-01      7.825727E-01
   OXYGEN                         2.309974E-01      2.075588E-01
   CARBON DIOXIDE                 5.914650E-04      3.864118E-04
   WATER VAPOR                    5.941209E-03      9.482037E-03
 
     Viscosity (kg/m/s) Ambient,  293 K:  1.796E-05
                                  500 K:  2.612E-05
                                 1000 K:  4.125E-05
                                 1500 K:  5.371E-05
                                 2000 K:  6.476E-05
   Therm. Cond. (W/m/K) Ambient,  293 K:  2.556E-02
                                  500 K:  3.814E-02
                                 1000 K:  6.686E-02
                                 1500 K:  9.249E-02
                                 2000 K:  1.153E-01
        Enthalpy (J/kg) Ambient,  293 K: -9.012E+04
                                  500 K:  1.222E+05
                                 1000 K:  6.721E+05
                                 1500 K:  1.270E+06
                                 2000 K:  1.896E+06
    Spec. Heat (J/kg/K) Ambient,  293 K:  1.016E+03
                                  500 K:  1.042E+03
                                 1000 K:  1.156E+03
                                 1500 K:  1.229E+03
                                 2000 K:  1.270E+03
   Diff. Coeff. (m^2/s) Ambient,  293 K:  1.991E-05
                                  500 K:  4.961E-05
                                 1000 K:  1.580E-04
                                 1500 K:  3.095E-04
                                 2000 K:  4.984E-04
     Gibbs Energy Amb. (kJ/mol),  293 K: -5.873E+01
                                  500 K: -1.007E+02
                                 1000 K: -2.117E+02
                                 1500 K: -3.312E+02
                                 2000 K: -4.568E+02

   METHANE
   Molecular Weight (g/mol)            16.04246
   Ambient Density (kg/m^3)            0.667
   Initial Mass Fraction               0.000
   Enthalpy of Formation (J/kg)     -4.650E+06

   Sub Species                    Mass Fraction     Mole Fraction
   METHANE                        1.000000E+00      1.000000E+00
 
     Viscosity (kg/m/s) Ambient,  293 K:  1.096E-05
                                  500 K:  1.677E-05
                                 1000 K:  2.728E-05
                                 1500 K:  3.559E-05
                                 2000 K:  4.290E-05
   Therm. Cond. (W/m/K) Ambient,  293 K:  3.466E-02
                                  500 K:  6.958E-02
                                 1000 K:  1.790E-01
                                 1500 K:  2.880E-01
                                 2000 K:  3.876E-01
        Enthalpy (J/kg) Ambient,  293 K: -4.661E+06
                                  500 K: -4.137E+06
                                 1000 K: -2.239E+06
                                 1500 K:  3.482E+05
                                 2000 K:  3.357E+06
    Spec. Heat (J/kg/K) Ambient,  293 K:  2.213E+03
                                  500 K:  2.904E+03
                                 1000 K:  4.593E+03
                                 1500 K:  5.664E+03
                                 2000 K:  6.323E+03
   Diff. Coeff. (m^2/s) Ambient,  293 K:  2.147E-05
                                  500 K:  5.438E-05
                                 1000 K:  1.750E-04
                                 1500 K:  3.433E-04
                                 2000 K:  5.530E-04
     Gibbs Energy Amb. (kJ/mol),  293 K: -1.292E+02
                                  500 K: -1.700E+02
                                 1000 K: -2.842E+02
                                 1500 K: -4.170E+02
                                 2000 K: -5.650E+02

   PRODUCTS
   Molecular Weight (g/mol)            27.46399
   Ambient Density (kg/m^3)            1.142
   Initial Mass Fraction               0.000
   Enthalpy of Formation (J/kg)     -3.075E+06

   Sub Species                    Mass Fraction     Mole Fraction
   NITROGEN                       7.201481E-01      7.060242E-01
   CARBON DIOXIDE                 1.483551E-01      9.258054E-02
   WATER VAPOR                    1.302756E-01      1.986030E-01
   CARBON MONOXIDE                0.000000E+00      0.000000E+00
   SOOT                           1.221137E-03      2.792284E-03
   HYDROGEN CYANIDE               0.000000E+00      0.000000E+00
 
     Viscosity (kg/m/s) Ambient,  293 K:  1.597E-05
                                  500 K:  2.370E-05
                                 1000 K:  3.883E-05
                                 1500 K:  5.145E-05
                                 2000 K:  6.257E-05
   Therm. Cond. (W/m/K) Ambient,  293 K:  2.345E-02
                                  500 K:  3.623E-02
                                 1000 K:  6.765E-02
                                 1500 K:  9.768E-02
                                 2000 K:  1.248E-01
        Enthalpy (J/kg) Ambient,  293 K: -3.081E+06
                                  500 K: -2.845E+06
                                 1000 K: -2.222E+06
                                 1500 K: -1.529E+06
                                 2000 K: -7.921E+05
    Spec. Heat (J/kg/K) Ambient,  293 K:  1.117E+03
                                  500 K:  1.167E+03
                                 1000 K:  1.324E+03
                                 1500 K:  1.437E+03
                                 2000 K:  1.505E+03
   Diff. Coeff. (m^2/s) Ambient,  293 K:  1.966E-05
                                  500 K:  5.008E-05
                                 1000 K:  1.622E-04
                                 1500 K:  3.192E-04
                                 2000 K:  5.149E-04
     Gibbs Energy Amb. (kJ/mol),  293 K: -1.468E+02
                                  500 K: -1.888E+02
                                 1000 K: -3.007E+02
                                 1500 K: -4.221E+02
                                 2000 K: -5.503E+02


 Gas Phase Reaction Information

   Solver Details:  

      ODE Solver:  EXPLICIT EULER

      Fuel                                           Heat of Combustion (kJ/kg)
      METHANE                                                        49306.5726
      EPUMO2:                                                        12544.1228

      Primitive Species Stoich. Coeff.
      Species ID                                                          Molar
      OXYGEN                                                          -1.970615
      CARBON DIOXIDE                                                   0.970615
      WATER VAPOR                                                      2.000000
      SOOT                                                             0.029385
      METHANE                                                         -1.000000

      Tracked (Lumped) Species Stoich. Coeff.
      Species ID                                             Molar         Mass
      AIR                                                -9.494248   -17.015998
      METHANE                                            -1.000000    -1.000000
      PRODUCTS                                           10.523633    18.015998

      Reaction Kinetics

      Fast chemistry

      Extinction Model:  EXTINCTION 1
      Auto-Ignition Temperature (C):            -273.1
      Critical Flame Temperature (C):           1507.0

      Prescribed Radiative Fraction:             0.200


 Material Information


 Surface Conditions

   0 INERT (DEFAULT)

   1 FIRE_SOURCE
     HRR Per Unit Area (kW/m2)       1400.0
     METHANE Mass Flux (kg/s/m2)   2.839E-02

   2 OPEN
     Passive Vent to Atmosphere

   3 MIRROR
     Symmetry Plane

   4 INTERPOLATED

   5 PERIODIC

   6 HVAC

   7 MASSLESS TRACER

   8 DROPLET

   9 MASSLESS TARGET

  10 PERIODIC FLOW ONLY


 Lagrangian Particle Classes


 Cut-off Density and Temperature

    Minimum Temperature:  -259.1 C
    Maximum Temperature:  2726.8 C
    Minimum Density:  1.195E-01 kg/m3
    Maximum Density:  5.006E+01 kg/m3


 Device Information

   1 ID: TEMP_CENTER
     QUANTITY: TEMPERATURE
     Coordinates (X,Y,Z):    0.000000E+00    0.000000E+00    1.200000E+00
     TEMPORAL STATISTIC: TIME AVERAGE


 Slice File Information, Mesh     1

   1 Nodes:  20  20   0  40   0  23, Quantity: TEMPERATURE
   2 Nodes:  20  20   0  40   0  23, Quantity: U-VELOCITY
   3 Nodes:  20  20   0  40   0  23, Quantity: V-VELOCITY
   4 Nodes:  20  20   0  40   0  23, Quantity: W-VELOCITY
   5 Nodes:   0  40  20  20   0  23, Quantity: TEMPERATURE
   6 Nodes:   0  40  20  20   0  23, Quantity: U-VELOCITY
   7 Nodes:   0  40  20  20   0  23, Quantity: V-VELOCITY
   8 Nodes:   0  40  20  20   0  23, Quantity: W-VELOCITY
   9 Nodes:   0  40   0  40  12  12, Quantity: TEMPERATURE
  10 Nodes:   0  40  20  20   0  23, Quantity: HRRPUV
  11 Nodes:   0  40  20  20   0  23, Quantity: VELOCITY
  12 Nodes:   0  40  20  20   0  23, Quantity: U-VELOCITY
  13 Nodes:   0  40  20  20   0  23, Quantity: V-VELOCITY
  14 Nodes:   0  40  20  20   0  23, Quantity: W-VELOCITY
  15 Nodes:  20  20   0  40   0  23, Quantity: HRRPUV


 Radiation Model Information

   Number of control angles  104
   Time step increment         3
   Angle increment             5
   Theta band N_phi   Solid angle
     1:        4     0.120
     2:       12     0.114
     3:       16     0.127
     4:       20     0.120
     5:       20     0.120
     6:       16     0.127
     7:       12     0.114
     8:        4     0.120
   Using gray gas absorption.
   Mean beam length  1.000E-01 m
 
 

 Run Time Diagnostics

       Time Step        1   February 18, 2026  18:15:31
       Step Size:  0.105E+00 s, Total Time:    0.10454 s
       Pressure Iterations: 1
       Maximum Velocity Error:  0.11E-03 on Mesh 1 at (23,0,17)
       Maximum Pressure Error:  0.74E+00 on Mesh 1 at (20,20,1)
       ---------------------------------------------------------------
       Max CFL number:  0.27E-01 at (19,36,5)
       Max divergence:  0.68E-02 at (19,22,1)
       Min divergence: -0.13E-05 at (9,32,7)
       Max VN number :  0.25E-01 at (8,40,7)
 
       Time Step        2   February 18, 2026  18:15:31
       Step Size:  0.105E+00 s, Total Time:    0.20907 s
       Pressure Iterations: 1
       Maximum Velocity Error:  0.30E-02 on Mesh 1 at (40,21,1)
       Maximum Pressure Error:  0.11E+03 on Mesh 1 at (21,20,1)
       ---------------------------------------------------------------
       Max CFL number:  0.27E-01 at (19,36,5)
       Max divergence:  0.27E+01 at (22,21,1)
       Min divergence: -0.13E-05 at (9,32,7)
       Max VN number :  0.25E-01 at (8,40,7)
 
       Time Step        3   February 18, 2026  18:15:31
       Step Size:  0.105E+00 s, Total Time:    0.31361 s
       Pressure Iterations: 1
       Maximum Velocity Error:  0.57E-02 on Mesh 1 at (40,21,1)
       Maximum Pressure Error:  0.48E+01 on Mesh 1 at (22,19,1)
       ---------------------------------------------------------------
       Max CFL number:  0.49E+00 at (22,19,1)
       Max divergence:  0.46E+01 at (21,20,1)
       Min divergence: -0.11E-05 at (14,5,19)
       Max VN number :  0.71E-01 at (20,21,1)
 
       Time Step        4   February 18, 2026  18:15:31
       Step Size:  0.105E+00 s, Total Time:    0.41814 s
       Pressure Iterations: 1
       Maximum Velocity Error:  0.70E-02 on Mesh 1 at (40,21,1)
       Maximum Pressure Error:  0.25E+02 on Mesh 1 at (19,21,1)
       ---------------------------------------------------------------
       Max CFL number:  0.74E+00 at (22,19,1)
       Max divergence:  0.49E+01 at (21,20,1)
       Min divergence: -0.11E-05 at (14,5,19)
       Max VN number :  0.17E+00 at (20,21,1)
 
       Time Step        5   February 18, 2026  18:15:31
       Step Size:  0.105E+00 s, Total Time:    0.52268 s
       Pressure Iterations: 1
       Maximum Velocity Error:  0.33E-02 on Mesh 1 at (40,20,1)
       Maximum Pressure Error:  0.39E+03 on Mesh 1 at (22,22,1)
       ---------------------------------------------------------------
       Max CFL number:  0.93E+00 at (22,19,1)
       Max divergence:  0.23E+01 at (22,19,1)
       Min divergence: -0.10E-05 at (14,5,19)
       Max VN number :  0.23E+00 at (22,19,2)
 
       Time Step        6   February 18, 2026  18:15:31
       Step Size:  0.530E-01 s, Total Time:    0.57569 s
       Pressure Iterations: 1
       Maximum Velocity Error:  0.46E-02 on Mesh 1 at (40,21,1)
       Maximum Pressure Error:  0.12E+03 on Mesh 1 at (22,19,2)
       ---------------------------------------------------------------
       Max CFL number:  0.68E+00 at (22,19,1)
       Max divergence:  0.38E+01 at (19,19,1)
       Min divergence: -0.90E-06 at (7,3,2)
       Max VN number :  0.25E+00 at (22,19,2)
 
       Time Step        7   February 18, 2026  18:15:31
       Step Size:  0.519E-01 s, Total Time:    0.62762 s
       Pressure Iterations: 1
       Maximum Velocity Error:  0.24E-02 on Mesh 1 at (40,40,1)
       Maximum Pressure Error:  0.36E+03 on Mesh 1 at (21,20,1)
       ---------------------------------------------------------------
       Max CFL number:  0.88E+00 at (22,19,1)
       Max divergence:  0.37E+01 at (22,19,1)
       Min divergence: -0.38E+01 at (20,21,1)
       Max VN number :  0.29E+00 at (22,19,2)
 
       Time Step        8   February 18, 2026  18:15:31
       Step Size:  0.519E-01 s, Total Time:    0.67954 s
       Pressure Iterations: 1
       Maximum Velocity Error:  0.28E-02 on Mesh 1 at (40,40,1)
       Maximum Pressure Error:  0.30E+03 on Mesh 1 at (21,20,1)
       ---------------------------------------------------------------
       Max CFL number:  0.98E+00 at (22,19,1)
       Max divergence:  0.48E+01 at (21,19,1)
       Min divergence: -0.13E+01 at (20,21,1)
       Max VN number :  0.30E+00 at (22,19,2)
 
       Time Step        9   February 18, 2026  18:15:32
       Step Size:  0.459E-01 s, Total Time:    0.72547 s
       Pressure Iterations: 1
       Maximum Velocity Error:  0.30E-02 on Mesh 1 at (40,40,1)
       Maximum Pressure Error:  0.41E+02 on Mesh 1 at (19,20,3)
       ---------------------------------------------------------------
       Max CFL number:  0.91E+00 at (20,22,1)
       Max divergence:  0.49E+01 at (21,19,1)
       Min divergence: -0.85E+00 at (20,20,1)
       Max VN number :  0.31E+00 at (22,19,3)
 
       Time Step       10   February 18, 2026  18:15:32
       Step Size:  0.459E-01 s, Total Time:    0.77140 s
       Pressure Iterations: 1
       Maximum Velocity Error:  0.31E-02 on Mesh 1 at (40,40,1)
       Maximum Pressure Error:  0.38E+03 on Mesh 1 at (20,20,1)
       ---------------------------------------------------------------
       Max CFL number:  0.94E+00 at (20,19,1)
       Max divergence:  0.51E+01 at (21,20,1)
       Min divergence: -0.40E+00 at (20,20,2)
       Max VN number :  0.29E+00 at (22,19,3)
 
       Time Step       20   February 18, 2026  18:15:33
       Step Size:  0.179E-01 s, Total Time:    0.99821 s
       Pressure Iterations: 1
       Maximum Velocity Error:  0.31E-02 on Mesh 1 at (20,40,1)
       Maximum Pressure Error:  0.11E+03 on Mesh 1 at (21,21,6)
       ---------------------------------------------------------------
       Max CFL number:  0.98E+00 at (20,20,5)
       Max divergence:  0.72E+01 at (19,21,1)
       Min divergence: -0.12E+01 at (21,21,5)
       Max VN number :  0.20E+00 at (20,20,4)
 
       Time Step       30   February 18, 2026  18:15:33
       Step Size:  0.150E-01 s, Total Time:    1.14836 s
       Pressure Iterations: 1
       Maximum Velocity Error:  0.58E-02 on Mesh 1 at (40,1,1)
       Maximum Pressure Error:  0.34E+03 on Mesh 1 at (20,21,9)
       ---------------------------------------------------------------
       Max CFL number:  0.95E+00 at (21,21,7)
       Max divergence:  0.78E+01 at (19,21,1)
       Min divergence: -0.94E+00 at (20,21,8)
       Max VN number :  0.21E+00 at (20,21,8)
 
       Time Step       40   February 18, 2026  18:15:34
       Step Size:  0.124E-01 s, Total Time:    1.28281 s
       Pressure Iterations: 1
       Maximum Velocity Error:  0.13E-02 on Mesh 1 at (20,40,9)
       Maximum Pressure Error:  0.49E+03 on Mesh 1 at (20,21,13)
       ---------------------------------------------------------------
       Max CFL number:  0.92E+00 at (21,21,7)
       Max divergence:  0.79E+01 at (22,21,1)
       Min divergence: -0.25E+01 at (20,21,12)
       Max VN number :  0.32E+00 at (20,21,13)
 
       Time Step       50   February 18, 2026  18:15:35
       Step Size:  0.109E-01 s, Total Time:    1.39372 s
       Pressure Iterations: 1
       Maximum Velocity Error:  0.19E-02 on Mesh 1 at (40,21,1)
       Maximum Pressure Error:  0.53E+03 on Mesh 1 at (20,21,17)
       ---------------------------------------------------------------
       Max CFL number:  0.95E+00 at (21,21,11)
       Max divergence:  0.78E+01 at (22,20,1)
       Min divergence: -0.32E+01 at (21,20,16)
       Max VN number :  0.32E+00 at (20,21,17)
 
       Time Step       60   February 18, 2026  18:15:35
       Step Size:  0.972E-02 s, Total Time:    1.49827 s
       Pressure Iterations: 1
       Maximum Velocity Error:  0.12E-02 on Mesh 1 at (40,40,1)
       Maximum Pressure Error:  0.37E+03 on Mesh 1 at (21,21,20)
       ---------------------------------------------------------------
       Max CFL number:  0.92E+00 at (21,21,19)
       Max divergence:  0.81E+01 at (20,19,1)
       Min divergence: -0.23E+01 at (21,20,20)
       Max VN number :  0.25E+00 at (21,21,18)
 
       Time Step       70   February 18, 2026  18:15:36
       Step Size:  0.972E-02 s, Total Time:    1.59546 s
       Pressure Iterations: 1
       Maximum Velocity Error:  0.30E-02 on Mesh 1 at (40,40,1)
       Maximum Pressure Error:  0.37E+03 on Mesh 1 at (21,21,10)
       ---------------------------------------------------------------
       Max CFL number:  0.83E+00 at (21,21,9)
       Max divergence:  0.83E+01 at (20,19,1)
       Min divergence: -0.26E+01 at (21,21,10)
       Max VN number :  0.23E+00 at (21,21,23)
 
       Time Step       80   February 18, 2026  18:15:37
       Step Size:  0.865E-02 s, Total Time:    1.68945 s
       Pressure Iterations: 1
       Maximum Velocity Error:  0.29E-02 on Mesh 1 at (40,40,1)
       Maximum Pressure Error:  0.40E+03 on Mesh 1 at (21,21,15)
       ---------------------------------------------------------------
       Max CFL number:  0.88E+00 at (21,21,14)
       Max divergence:  0.85E+01 at (20,22,1)
       Min divergence: -0.36E+01 at (21,21,10)
       Max VN number :  0.23E+00 at (21,21,14)
 
       Time Step       90   February 18, 2026  18:15:37
       Step Size:  0.865E-02 s, Total Time:    1.77596 s
       Pressure Iterations: 1
       Maximum Velocity Error:  0.21E-02 on Mesh 1 at (40,40,1)
       Maximum Pressure Error:  0.32E+03 on Mesh 1 at (21,20,13)
       ---------------------------------------------------------------
       Max CFL number:  0.79E+00 at (21,20,18)
       Max divergence:  0.86E+01 at (20,22,1)
       Min divergence: -0.33E+01 at (21,20,13)
       Max VN number :  0.19E+00 at (21,21,18)
 
       Time Step      100   February 18, 2026  18:15:38
       Step Size:  0.952E-02 s, Total Time:    1.87112 s
       Pressure Iterations: 1
       Maximum Velocity Error:  0.21E-02 on Mesh 1 at (40,40,1)
       Maximum Pressure Error:  0.52E+03 on Mesh 1 at (21,21,16)
       ---------------------------------------------------------------
       Max CFL number:  0.95E+00 at (21,20,19)
       Max divergence:  0.86E+01 at (20,22,1)
       Min divergence: -0.30E+01 at (21,20,14)
       Max VN number :  0.22E+00 at (21,20,17)
 
       Time Step      200   February 18, 2026  18:15:47
       Step Size:  0.925E-02 s, Total Time:    2.76208 s
       Pressure Iterations: 1
       Maximum Velocity Error:  0.10E-02 on Mesh 1 at (19,40,1)
       Maximum Pressure Error:  0.39E+03 on Mesh 1 at (19,20,21)
       ---------------------------------------------------------------
       Max CFL number:  0.86E+00 at (21,20,22)
       Max divergence:  0.89E+01 at (21,19,1)
       Min divergence: -0.44E+01 at (20,21,12)
       Max VN number :  0.24E+00 at (21,21,19)
 
       Time Step      300   February 18, 2026  18:15:56
       Step Size:  0.998E-02 s, Total Time:    3.69462 s
       Pressure Iterations: 1
       Maximum Velocity Error:  0.25E-02 on Mesh 1 at (40,40,1)
       Maximum Pressure Error:  0.42E+03 on Mesh 1 at (20,21,14)
       ---------------------------------------------------------------
       Max CFL number:  0.87E+00 at (21,19,22)
       Max divergence:  0.90E+01 at (20,19,1)
       Min divergence: -0.40E+01 at (21,21,14)
       Max VN number :  0.26E+00 at (21,18,22)
 
       Time Step      400   February 18, 2026  18:16:05
       Step Size:  0.810E-02 s, Total Time:    4.62820 s
       Pressure Iterations: 1
       Maximum Velocity Error:  0.12E-02 on Mesh 1 at (40,40,1)
       Maximum Pressure Error:  0.53E+03 on Mesh 1 at (21,19,19)
       ---------------------------------------------------------------
       Max CFL number:  0.79E+00 at (21,19,17)
       Max divergence:  0.92E+01 at (22,20,1)
       Min divergence: -0.34E+01 at (20,19,13)
       Max VN number :  0.23E+00 at (22,20,20)
 
       Time Step      500   February 18, 2026  18:16:14
       Step Size:  0.108E-01 s, Total Time:    5.55746 s
       Pressure Iterations: 1
       Maximum Velocity Error:  0.61E-02 on Mesh 1 at (40,40,1)
       Maximum Pressure Error:  0.67E+03 on Mesh 1 at (20,23,12)
       ---------------------------------------------------------------
       Max CFL number:  0.96E+00 at (20,23,10)
       Max divergence:  0.92E+01 at (22,22,1)
       Min divergence: -0.43E+01 at (20,23,11)
       Max VN number :  0.33E+00 at (20,23,10)
 
       Time Step      600   February 18, 2026  18:16:23
       Step Size:  0.108E-01 s, Total Time:    6.54684 s
       Pressure Iterations: 1
       Maximum Velocity Error:  0.58E-02 on Mesh 1 at (40,40,1)
       Maximum Pressure Error:  0.39E+03 on Mesh 1 at (20,20,5)
       ---------------------------------------------------------------
       Max CFL number:  0.83E+00 at (21,20,12)
       Max divergence:  0.10E+02 at (20,22,1)
       Min divergence: -0.37E+01 at (21,21,15)
       Max VN number :  0.24E+00 at (21,21,14)
 
       Time Step      700   February 18, 2026  18:16:32
       Step Size:  0.887E-02 s, Total Time:    7.48932 s
       Pressure Iterations: 1
       Maximum Velocity Error:  0.62E-02 on Mesh 1 at (40,40,1)
       Maximum Pressure Error:  0.39E+03 on Mesh 1 at (22,22,15)
       ---------------------------------------------------------------
       Max CFL number:  0.80E+00 at (22,21,11)
       Max divergence:  0.11E+02 at (19,19,1)
       Min divergence: -0.47E+01 at (22,21,12)
       Max VN number :  0.21E+00 at (22,21,11)
 
       Time Step      800   February 18, 2026  18:16:41
       Step Size:  0.102E-01 s, Total Time:    8.48145 s
       Pressure Iterations: 1
       Maximum Velocity Error:  0.12E-02 on Mesh 1 at (40,40,1)
       Maximum Pressure Error:  0.34E+03 on Mesh 1 at (17,21,20)
       ---------------------------------------------------------------
       Max CFL number:  0.86E+00 at (19,21,18)
       Max divergence:  0.13E+02 at (22,20,1)
       Min divergence: -0.56E+01 at (22,21,12)
       Max VN number :  0.28E+00 at (22,21,12)
 
       Time Step      900   February 18, 2026  18:16:51
       Step Size:  0.102E-01 s, Total Time:    9.48353 s
       Pressure Iterations: 1
       Maximum Velocity Error:  0.13E-02 on Mesh 1 at (1,40,1)
       Maximum Pressure Error:  0.45E+03 on Mesh 1 at (21,22,4)
       ---------------------------------------------------------------
       Max CFL number:  0.84E+00 at (21,21,15)
       Max divergence:  0.96E+01 at (22,20,1)
       Min divergence: -0.33E+01 at (20,23,8)
       Max VN number :  0.26E+00 at (20,23,7)
 
       Time Step     1000   February 18, 2026  18:17:00
       Step Size:  0.929E-02 s, Total Time:   10.51676 s
       Pressure Iterations: 1
       Maximum Velocity Error:  0.25E-02 on Mesh 1 at (40,1,1)
       Maximum Pressure Error:  0.59E+03 on Mesh 1 at (21,19,19)
       ---------------------------------------------------------------
       Max CFL number:  0.89E+00 at (21,19,17)
       Max divergence:  0.92E+01 at (20,19,1)
       Min divergence: -0.40E+01 at (22,18,21)
       Max VN number :  0.31E+00 at (22,18,20)
 
       Time Step     1100   February 18, 2026  18:17:11
       Step Size:  0.916E-02 s, Total Time:   11.46126 s
       Pressure Iterations: 1
       Maximum Velocity Error:  0.13E-02 on Mesh 1 at (21,40,1)
       Maximum Pressure Error:  0.85E+03 on Mesh 1 at (20,20,13)
       ---------------------------------------------------------------
       Max CFL number:  0.91E+00 at (20,20,12)
       Max divergence:  0.10E+02 at (20,21,2)
       Min divergence: -0.39E+01 at (20,20,12)
       Max VN number :  0.28E+00 at (20,20,12)
 
       Time Step     1200   February 18, 2026  18:17:23
       Step Size:  0.922E-02 s, Total Time:   12.46545 s
       Pressure Iterations: 1
       Maximum Velocity Error:  0.35E-02 on Mesh 1 at (40,40,1)
       Maximum Pressure Error:  0.40E+03 on Mesh 1 at (20,19,19)
       ---------------------------------------------------------------
       Max CFL number:  0.92E+00 at (20,19,19)
       Max divergence:  0.93E+01 at (19,19,1)
       Min divergence: -0.42E+01 at (20,19,19)
       Max VN number :  0.34E+00 at (20,19,18)
 
       Time Step     1300   February 18, 2026  18:17:35
       Step Size:  0.112E-01 s, Total Time:   13.44347 s
       Pressure Iterations: 1
       Maximum Velocity Error:  0.20E-02 on Mesh 1 at (8,0,1)
       Maximum Pressure Error:  0.70E+03 on Mesh 1 at (22,19,10)
       ---------------------------------------------------------------
       Max CFL number:  0.96E+00 at (21,19,20)
       Max divergence:  0.91E+01 at (21,19,1)
       Min divergence: -0.42E+01 at (22,19,10)
       Max VN number :  0.30E+00 at (22,19,9)
 
       Time Step     1400   February 18, 2026  18:17:46
       Step Size:  0.104E-01 s, Total Time:   14.39930 s
       Pressure Iterations: 1
       Maximum Velocity Error:  0.13E-02 on Mesh 1 at (9,0,1)
       Maximum Pressure Error:  0.68E+03 on Mesh 1 at (19,19,14)
       ---------------------------------------------------------------
       Max CFL number:  0.85E+00 at (19,20,13)
       Max divergence:  0.12E+02 at (21,19,1)
       Min divergence: -0.39E+01 at (19,19,14)
       Max VN number :  0.30E+00 at (19,19,13)
 
       Time Step     1500   February 18, 2026  18:17:57
       Step Size:  0.106E-01 s, Total Time:   15.36489 s
       Pressure Iterations: 1
       Maximum Velocity Error:  0.48E-02 on Mesh 1 at (40,1,1)
       Maximum Pressure Error:  0.31E+03 on Mesh 1 at (20,19,6)
       ---------------------------------------------------------------
       Max CFL number:  0.89E+00 at (21,19,7)
       Max divergence:  0.10E+02 at (22,21,1)
       Min divergence: -0.28E+01 at (21,20,11)
       Max VN number :  0.23E+00 at (21,22,19)
 
       Time Step     1600   February 18, 2026  18:18:09
       Step Size:  0.101E-01 s, Total Time:   16.46885 s
       Pressure Iterations: 1
       Maximum Velocity Error:  0.63E-02 on Mesh 1 at (40,40,1)
       Maximum Pressure Error:  0.70E+03 on Mesh 1 at (21,21,12)
       ---------------------------------------------------------------
       Max CFL number:  0.84E+00 at (20,20,7)
       Max divergence:  0.10E+02 at (21,19,1)
       Min divergence: -0.37E+01 at (21,19,13)
       Max VN number :  0.24E+00 at (21,19,13)
 
       Time Step     1700   February 18, 2026  18:18:20
       Step Size:  0.943E-02 s, Total Time:   17.47897 s
       Pressure Iterations: 1
       Maximum Velocity Error:  0.34E-02 on Mesh 1 at (40,1,1)
       Maximum Pressure Error:  0.59E+03 on Mesh 1 at (23,22,16)
       ---------------------------------------------------------------
       Max CFL number:  0.84E+00 at (20,21,20)
       Max divergence:  0.92E+01 at (19,21,1)
       Min divergence: -0.45E+01 at (23,22,16)
       Max VN number :  0.28E+00 at (23,22,15)
 
       Time Step     1800   February 18, 2026  18:18:31
       Step Size:  0.996E-02 s, Total Time:   18.46207 s
       Pressure Iterations: 1
       Maximum Velocity Error:  0.51E-02 on Mesh 1 at (40,40,1)
       Maximum Pressure Error:  0.43E+03 on Mesh 1 at (19,22,13)
       ---------------------------------------------------------------
       Max CFL number:  0.94E+00 at (19,21,17)
       Max divergence:  0.11E+02 at (22,19,1)
       Min divergence: -0.58E+01 at (19,22,12)
       Max VN number :  0.31E+00 at (20,23,22)
 
       Time Step     1900   February 18, 2026  18:18:42
       Step Size:  0.102E-01 s, Total Time:   19.47726 s
       Pressure Iterations: 1
       Maximum Velocity Error:  0.47E-02 on Mesh 1 at (40,21,1)
       Maximum Pressure Error:  0.48E+03 on Mesh 1 at (23,20,10)
       ---------------------------------------------------------------
       Max CFL number:  0.87E+00 at (22,18,16)
       Max divergence:  0.94E+01 at (22,22,1)
       Min divergence: -0.35E+01 at (22,20,11)
       Max VN number :  0.25E+00 at (23,20,22)
 
       Time Step     2000   February 18, 2026  18:18:53
       Step Size:  0.101E-01 s, Total Time:   20.42426 s
       Pressure Iterations: 1
       Maximum Velocity Error:  0.29E-02 on Mesh 1 at (40,1,1)
       Maximum Pressure Error:  0.46E+03 on Mesh 1 at (21,19,9)
       ---------------------------------------------------------------
       Max CFL number:  0.92E+00 at (24,20,17)
       Max divergence:  0.11E+02 at (22,21,1)
       Min divergence: -0.36E+01 at (21,20,9)
       Max VN number :  0.28E+00 at (21,20,10)
 
       Time Step     2100   February 18, 2026  18:19:03
       Step Size:  0.110E-01 s, Total Time:   21.48826 s
       Pressure Iterations: 1
       Maximum Velocity Error:  0.10E-02 on Mesh 1 at (40,40,1)
       Maximum Pressure Error:  0.45E+03 on Mesh 1 at (19,23,13)
       ---------------------------------------------------------------
       Max CFL number:  0.95E+00 at (19,23,12)
       Max divergence:  0.14E+02 at (22,21,1)
       Min divergence: -0.30E+01 at (19,23,13)
       Max VN number :  0.34E+00 at (19,23,12)
 
       Time Step     2200   February 18, 2026  18:19:13
       Step Size:  0.833E-02 s, Total Time:   22.48490 s
       Pressure Iterations: 1
       Maximum Velocity Error:  0.57E-02 on Mesh 1 at (40,1,1)
       Maximum Pressure Error:  0.33E+03 on Mesh 1 at (25,22,21)
       ---------------------------------------------------------------
       Max CFL number:  0.86E+00 at (24,21,22)
       Max divergence:  0.12E+02 at (20,19,1)
       Min divergence: -0.34E+01 at (22,20,9)
       Max VN number :  0.26E+00 at (24,21,22)
 
       Time Step     2300   February 18, 2026  18:19:25
       Step Size:  0.101E-01 s, Total Time:   23.48370 s
       Pressure Iterations: 1
       Maximum Velocity Error:  0.86E-02 on Mesh 1 at (40,1,1)
       Maximum Pressure Error:  0.27E+03 on Mesh 1 at (20,20,6)
       ---------------------------------------------------------------
       Max CFL number:  0.86E+00 at (20,20,12)
       Max divergence:  0.16E+02 at (20,21,1)
       Min divergence: -0.31E+01 at (21,20,9)
       Max VN number :  0.23E+00 at (21,18,15)
 
       Time Step     2400   February 18, 2026  18:19:36
       Step Size:  0.968E-02 s, Total Time:   24.44742 s
       Pressure Iterations: 1
       Maximum Velocity Error:  0.24E-02 on Mesh 1 at (40,19,1)
       Maximum Pressure Error:  0.39E+03 on Mesh 1 at (22,19,9)
       ---------------------------------------------------------------
       Max CFL number:  0.83E+00 at (25,21,19)
       Max divergence:  0.99E+01 at (19,21,1)
       Min divergence: -0.27E+01 at (22,20,10)
       Max VN number :  0.27E+00 at (25,22,19)
 
       Time Step     2500   February 18, 2026  18:19:47
       Step Size:  0.953E-02 s, Total Time:   25.47363 s
       Pressure Iterations: 1
       Maximum Velocity Error:  0.29E-02 on Mesh 1 at (40,40,1)
       Maximum Pressure Error:  0.59E+03 on Mesh 1 at (20,21,9)
       ---------------------------------------------------------------
       Max CFL number:  0.88E+00 at (20,21,9)
       Max divergence:  0.15E+02 at (20,21,1)
       Min divergence: -0.31E+01 at (20,21,8)
       Max VN number :  0.22E+00 at (20,21,7)
 
       Time Step     2600   February 18, 2026  18:19:58
       Step Size:  0.104E-01 s, Total Time:   26.48571 s
       Pressure Iterations: 1
       Maximum Velocity Error:  0.19E-02 on Mesh 1 at (40,40,1)
       Maximum Pressure Error:  0.55E+03 on Mesh 1 at (21,20,7)
       ---------------------------------------------------------------
       Max CFL number:  0.91E+00 at (20,21,8)
       Max divergence:  0.11E+02 at (20,21,1)
       Min divergence: -0.54E+01 at (20,22,12)
       Max VN number :  0.27E+00 at (20,22,12)
 
       Time Step     2700   February 18, 2026  18:20:09
       Step Size:  0.110E-01 s, Total Time:   27.53691 s
       Pressure Iterations: 1
       Maximum Velocity Error:  0.45E-02 on Mesh 1 at (19,40,1)
       Maximum Pressure Error:  0.47E+03 on Mesh 1 at (21,21,12)
       ---------------------------------------------------------------
       Max CFL number:  0.93E+00 at (24,23,15)
       Max divergence:  0.12E+02 at (22,20,1)
       Min divergence: -0.69E+01 at (21,21,12)
       Max VN number :  0.35E+00 at (21,21,11)
 
       Time Step     2800   February 18, 2026  18:20:20
       Step Size:  0.124E-01 s, Total Time:   28.61545 s
       Pressure Iterations: 1
       Maximum Velocity Error:  0.16E-02 on Mesh 1 at (40,1,1)
       Maximum Pressure Error:  0.32E+03 on Mesh 1 at (24,21,13)
       ---------------------------------------------------------------
       Max CFL number:  0.88E+00 at (24,21,12)
       Max divergence:  0.15E+02 at (21,19,1)
       Min divergence: -0.36E+01 at (21,20,3)
       Max VN number :  0.32E+00 at (24,21,12)
 
       Time Step     2900   February 18, 2026  18:20:31
       Step Size:  0.102E-01 s, Total Time:   29.68329 s
       Pressure Iterations: 1
       Maximum Velocity Error:  0.57E-02 on Mesh 1 at (40,40,1)
       Maximum Pressure Error:  0.32E+03 on Mesh 1 at (23,21,20)
       ---------------------------------------------------------------
       Max CFL number:  0.91E+00 at (21,21,17)
       Max divergence:  0.11E+02 at (22,20,1)
       Min divergence: -0.30E+01 at (22,18,8)
       Max VN number :  0.26E+00 at (21,21,17)
 
       Time Step     2928   February 18, 2026  18:20:34
       Step Size:  0.123E-01 s, Total Time:   30.00000 s
       Pressure Iterations: 1
       Maximum Velocity Error:  0.12E-02 on Mesh 1 at (40,22,6)
       Maximum Pressure Error:  0.36E+03 on Mesh 1 at (19,20,8)
       ---------------------------------------------------------------
       Max CFL number:  0.85E+00 at (22,22,13)
       Max divergence:  0.10E+02 at (21,21,1)
       Min divergence: -0.25E+01 at (18,20,6)
       Max VN number :  0.24E+00 at (20,20,6)
 


 Time Stepping Wall Clock Time (s):      303.273
 Total Elapsed Wall Clock Time (s):      305.425

STOP: FDS completed successfully (CHID: GEN_METHANE_large_20260218_181435)
