
 Fire Dynamics Simulator

 Current Date     : February 26, 2026  16:59:33
 Revision         : FDS-6.10.1-0-g12efa16-release
 Revision Date    : Wed Apr 2 17:38:58 2025 -0400
 Compiler         : Intel(R) Fortran Compiler for applications running on Intel(R) 64, Version 2025.1.0 Build 20250317
 Compilation Date : Fri-04/04/2025-08:57-AM

 Number of MPI Processes:  1
 Number of OpenMP Threads: 4

 MPI version: 3.1
 MPI library version: Intel(R) MPI Library 2021.6 for Windows* OS

 Hypre library version: v2.32.0
 Sundials library version: v6.7.0

 Job TITLE        : Generated Fire Scenario - Calibrated for Training Range
 Job ID string    : GEN_DIESEL_large_20260226_165929


 Grid Dimensions, Mesh     1

   Cells in the X Direction            36
   Cells in the Y Direction            36
   Cells in the Z Direction            21
   Number of Grid Cells             27216


 Physical Dimensions, Mesh     1

   Length (m)                       4.000
   Width  (m)                       4.000
   Height (m)                       2.400

 Miscellaneous Parameters

   Total Number of Grid Cells       27216
   Maximum Cell Aspect Ratio        1.029
   Initial Time Step (s)            0.116
   CFL Velocity Norm                    2
   Simulation Start Time (s)          0.0
   Simulation End Time (s)           30.0
   Background Pressure (Pa)     101325.00
   Ambient Temperature (C)          20.00

   3D Cartesian
   VLES Calculation
   Eddy Viscosity Model:  Deardorff (C_DEARDORFF = 0.10)
   Surface INERT Eddy Viscosity Model:  WALE (C_WALE = 0.60)
   Surface FIRE_SOURCE Eddy Viscosity Model:  WALE (C_WALE = 0.60)
   Turbulent Prandtl Number:         0.50
   Turbulent Schmidt Number:         0.50


 Pressure solver information

   Solver:                            FFT
   Velocity tolerance (m/s):    5.608E-02
   Press eqn res tol (1/s^2):   1.590E+03
   Max pressure iterations:            10


 Background Stratification

      Z (m)     P_0 (Pa)    TMP_0 (C)
   ------------------------------------
        2.34    101297.54     20.00
        2.23    101298.87     20.00
        2.11    101300.21     20.00
        2.00    101301.55     20.00
        1.89    101302.89     20.00
        1.77    101304.24     20.00
        1.66    101305.57     20.00
        1.54    101306.91     20.00
        1.43    101308.25     20.00
        1.31    101309.59     20.00
        1.20    101310.93     20.00
        1.09    101312.27     20.00
        0.97    101313.61     20.00
        0.86    101314.95     20.00
        0.74    101316.29     20.00
        0.63    101317.62     20.00
        0.51    101318.97     20.00
        0.40    101320.31     20.00
        0.29    101321.65     20.00
        0.17    101322.99     20.00
        0.06    101324.32     20.00


 Mass Fraction Transformation Matrix to Convert Species Mixtures (Columns) to Primitive Species (Rows)

                         AIR       DIESEL    PRODUCTS
   NITROGEN              0.762470  0.000000  0.711691
   OXYGEN                0.230997  0.000000  0.000000
   CARBON DIOXIDE        0.000591  0.000000  0.196368
   WATER VAPOR           0.005941  0.000000  0.088011
   CARBON MONOXIDE       0.000000  0.000000  0.000000
   SOOT                  0.000000  0.000000  0.003929
   HYDROGEN              0.000000  0.000000  0.000000
   HYDROGEN CYANIDE      0.000000  0.000000  0.000000
   DIESEL                0.000000  1.000000  0.000000


 Primitive Species Information

   NITROGEN
   Gas Species
   Molecular Weight (g/mol)                28.01340
   Ambient Density (kg/m^3)                1.165
           Enthalpy of Formation (J/kg)  0.000E+00

   OXYGEN
   Gas Species
   Molecular Weight (g/mol)                31.99880
   Ambient Density (kg/m^3)                1.330
           Enthalpy of Formation (J/kg)  0.000E+00

   CARBON DIOXIDE
   Gas Species
   Molecular Weight (g/mol)                44.00950
   Ambient Density (kg/m^3)                1.830
           Enthalpy of Formation (J/kg) -8.941E+06

   WATER VAPOR
   Gas Species
   Molecular Weight (g/mol)                18.01528
   Ambient Density (kg/m^3)                0.749
           Enthalpy of Formation (J/kg) -1.342E+07

   CARBON MONOXIDE
   Gas Species
   Molecular Weight (g/mol)                28.01010
   Ambient Density (kg/m^3)                1.164
           Enthalpy of Formation (J/kg) -3.946E+06

   SOOT
   Gas Species
   Molecular Weight (g/mol)                12.01070
   Ambient Density (kg/m^3)                0.499
           Enthalpy of Formation (J/kg)  0.000E+00

   HYDROGEN
   Gas Species
   Molecular Weight (g/mol)                 2.01588
   Ambient Density (kg/m^3)                0.084
           Enthalpy of Formation (J/kg)  0.000E+00

   HYDROGEN CYANIDE
   Gas Species
   Molecular Weight (g/mol)                27.02534
   Ambient Density (kg/m^3)                1.123
           Enthalpy of Formation (J/kg)  4.924E+06

   DIESEL
   Gas Species
   Molecular Weight (g/mol)               167.31102
   Ambient Density (kg/m^3)                6.955
   Assumed Enthalpy of Formation (J/kg) -5.003E+05


 Tracked (Lumped) Species Information

   AIR
   Molecular Weight (g/mol)            28.75198
   Ambient Density (kg/m^3)            1.195
   Initial Mass Fraction               1.000
   Enthalpy of Formation (J/kg)     -8.504E+04

   Sub Species                    Mass Fraction     Mole Fraction
   NITROGEN                       7.624699E-01      7.825727E-01
   OXYGEN                         2.309974E-01      2.075588E-01
   CARBON DIOXIDE                 5.914650E-04      3.864118E-04
   WATER VAPOR                    5.941209E-03      9.482037E-03
 
     Viscosity (kg/m/s) Ambient,  293 K:  1.796E-05
                                  500 K:  2.612E-05
                                 1000 K:  4.125E-05
                                 1500 K:  5.371E-05
                                 2000 K:  6.476E-05
   Therm. Cond. (W/m/K) Ambient,  293 K:  2.556E-02
                                  500 K:  3.814E-02
                                 1000 K:  6.686E-02
                                 1500 K:  9.249E-02
                                 2000 K:  1.153E-01
        Enthalpy (J/kg) Ambient,  293 K: -9.012E+04
                                  500 K:  1.222E+05
                                 1000 K:  6.721E+05
                                 1500 K:  1.270E+06
                                 2000 K:  1.896E+06
    Spec. Heat (J/kg/K) Ambient,  293 K:  1.016E+03
                                  500 K:  1.042E+03
                                 1000 K:  1.156E+03
                                 1500 K:  1.229E+03
                                 2000 K:  1.270E+03
   Diff. Coeff. (m^2/s) Ambient,  293 K:  1.991E-05
                                  500 K:  4.961E-05
                                 1000 K:  1.580E-04
                                 1500 K:  3.095E-04
                                 2000 K:  4.984E-04
     Gibbs Energy Amb. (kJ/mol),  293 K: -5.873E+01
                                  500 K: -1.007E+02
                                 1000 K: -2.117E+02
                                 1500 K: -3.312E+02
                                 2000 K: -4.568E+02

   DIESEL
   Molecular Weight (g/mol)           167.31102
   Ambient Density (kg/m^3)            6.955
   Initial Mass Fraction               0.000
   Enthalpy of Formation (J/kg)     -5.003E+05

   Sub Species                    Mass Fraction     Mole Fraction
   DIESEL                         1.000000E+00      1.000000E+00
 
     Viscosity (kg/m/s) Ambient,  293 K:  4.252E-05
                                  500 K:  6.138E-05
                                 1000 K:  9.649E-05
                                 1500 K:  1.255E-04
                                 2000 K:  1.513E-04
   Therm. Cond. (W/m/K) Ambient,  293 K:  1.042E-02
                                  500 K:  1.504E-02
                                 1000 K:  2.364E-02
                                 1500 K:  3.075E-02
                                 2000 K:  3.706E-02
        Enthalpy (J/kg) Ambient,  293 K:  5.099E+04
                                  500 K:  8.697E+04
                                 1000 K:  1.739E+05
                                 1500 K:  2.609E+05
                                 2000 K:  3.479E+05
    Spec. Heat (J/kg/K) Ambient,  293 K:  1.739E+02
                                  500 K:  1.739E+02
                                 1000 K:  1.739E+02
                                 1500 K:  1.739E+02
                                 2000 K:  1.739E+02
   Diff. Coeff. (m^2/s) Ambient,  293 K:  1.517E-05
                                  500 K:  3.770E-05
                                 1000 K:  1.198E-04
                                 1500 K:  2.346E-04
                                 2000 K:  3.778E-04

   PRODUCTS
   Molecular Weight (g/mol)            28.50640
   Ambient Density (kg/m^3)            1.185
   Initial Mass Fraction               0.000
   Enthalpy of Formation (J/kg)     -2.937E+06

   Sub Species                    Mass Fraction     Mole Fraction
   NITROGEN                       7.116913E-01      7.242161E-01
   CARBON DIOXIDE                 1.963684E-01      1.271942E-01
   WATER VAPOR                    8.801107E-02      1.392639E-01
   CARBON MONOXIDE                0.000000E+00      0.000000E+00
   SOOT                           3.929254E-03      9.325758E-03
   HYDROGEN CYANIDE               0.000000E+00      0.000000E+00
 
     Viscosity (kg/m/s) Ambient,  293 K:  1.619E-05
                                  500 K:  2.397E-05
                                 1000 K:  3.894E-05
                                 1500 K:  5.134E-05
                                 2000 K:  6.227E-05
   Therm. Cond. (W/m/K) Ambient,  293 K:  2.332E-02
                                  500 K:  3.611E-02
                                 1000 K:  6.678E-02
                                 1500 K:  9.540E-02
                                 2000 K:  1.210E-01
        Enthalpy (J/kg) Ambient,  293 K: -2.943E+06
                                  500 K: -2.715E+06
                                 1000 K: -2.112E+06
                                 1500 K: -1.443E+06
                                 2000 K: -7.346E+05
    Spec. Heat (J/kg/K) Ambient,  293 K:  1.071E+03
                                  500 K:  1.128E+03
                                 1000 K:  1.282E+03
                                 1500 K:  1.385E+03
                                 2000 K:  1.444E+03
   Diff. Coeff. (m^2/s) Ambient,  293 K:  1.947E-05
                                  500 K:  4.931E-05
                                 1000 K:  1.590E-04
                                 1500 K:  3.125E-04
                                 2000 K:  5.039E-04
     Gibbs Energy Amb. (kJ/mol),  293 K: -1.557E+02
                                  500 K: -1.978E+02
                                 1000 K: -3.102E+02
                                 1500 K: -4.323E+02
                                 2000 K: -5.613E+02


 Gas Phase Reaction Information

   Solver Details:  

      ODE Solver:  EXPLICIT EULER

      Fuel                                           Heat of Combustion (kJ/kg)
      DIESEL                                                         42412.0415
      EPUMO2:                                                        13100.0000

      Primitive Species Stoich. Coeff.
      Species ID                                                          Molar
      NITROGEN                                                         0.000000
      OXYGEN                                                         -16.928120
      CARBON DIOXIDE                                                  11.178120
      WATER VAPOR                                                     11.500000
      SOOT                                                             0.821880
      DIESEL                                                          -1.000000

      Tracked (Lumped) Species Stoich. Coeff.
      Species ID                                             Molar         Mass
      AIR                                               -81.558183   -14.015571
      DIESEL                                             -1.000000    -1.000000
      PRODUCTS                                           88.130062    15.015571

      Reaction Kinetics

      Fast chemistry

      Extinction Model:  EXTINCTION 1
      Auto-Ignition Temperature (C):            -273.1
      Critical Flame Temperature (C):           1427.0

      Prescribed Radiative Fraction:             0.350


 Material Information


 Surface Conditions

   0 INERT (DEFAULT)

   1 FIRE_SOURCE
     HRR Per Unit Area (kW/m2)       1000.0
     DIESEL Mass Flux (kg/s/m2)   2.358E-02

   2 OPEN
     Passive Vent to Atmosphere

   3 MIRROR
     Symmetry Plane

   4 INTERPOLATED

   5 PERIODIC

   6 HVAC

   7 MASSLESS TRACER

   8 DROPLET

   9 MASSLESS TARGET

  10 PERIODIC FLOW ONLY


 Lagrangian Particle Classes


 Cut-off Density and Temperature

    Minimum Temperature:  -259.1 C
    Maximum Temperature:  2726.8 C
    Minimum Density:  1.195E-01 kg/m3
    Maximum Density:  2.913E+02 kg/m3


 Device Information

   1 ID: TEMP_CENTER
     QUANTITY: TEMPERATURE
     Coordinates (X,Y,Z):    0.000000E+00    0.000000E+00    1.200000E+00
     TEMPORAL STATISTIC: TIME AVERAGE


 Slice File Information, Mesh     1

   1 Nodes:  18  18   0  36   0  21, Quantity: TEMPERATURE
   2 Nodes:  18  18   0  36   0  21, Quantity: U-VELOCITY
   3 Nodes:  18  18   0  36   0  21, Quantity: V-VELOCITY
   4 Nodes:  18  18   0  36   0  21, Quantity: W-VELOCITY
   5 Nodes:   0  36  18  18   0  21, Quantity: TEMPERATURE
   6 Nodes:   0  36  18  18   0  21, Quantity: U-VELOCITY
   7 Nodes:   0  36  18  18   0  21, Quantity: V-VELOCITY
   8 Nodes:   0  36  18  18   0  21, Quantity: W-VELOCITY
   9 Nodes:   0  36   0  36  11  11, Quantity: TEMPERATURE
  10 Nodes:   0  36  18  18   0  21, Quantity: HRRPUV
  11 Nodes:   0  36  18  18   0  21, Quantity: VELOCITY
  12 Nodes:   0  36  18  18   0  21, Quantity: U-VELOCITY
  13 Nodes:   0  36  18  18   0  21, Quantity: V-VELOCITY
  14 Nodes:   0  36  18  18   0  21, Quantity: W-VELOCITY
  15 Nodes:  18  18   0  36   0  21, Quantity: HRRPUV


 Radiation Model Information

   Number of control angles  104
   Time step increment         3
   Angle increment             5
   Theta band N_phi   Solid angle
     1:        4     0.120
     2:       12     0.114
     3:       16     0.127
     4:       20     0.120
     5:       20     0.120
     6:       16     0.127
     7:       12     0.114
     8:        4     0.120
   Using gray gas absorption.
   Mean beam length  1.000E-01 m
 
 

 Run Time Diagnostics

       Time Step        1   February 26, 2026  16:59:34
       Step Size:  0.116E+00 s, Total Time:    0.11560 s
       Pressure Iterations: 1
       Maximum Velocity Error:  0.99E-04 on Mesh 1 at (0,29,8)
       Maximum Pressure Error:  0.29E-01 on Mesh 1 at (19,19,1)
       ---------------------------------------------------------------
       Max CFL number:  0.27E-01 at (3,30,16)
       Max divergence:  0.18E-05 at (25,5,2)
       Min divergence: -0.99E-02 at (19,18,1)
       Max VN number :  0.26E-01 at (3,35,1)
 
       Time Step        2   February 26, 2026  16:59:34
       Step Size:  0.116E+00 s, Total Time:    0.23119 s
       Pressure Iterations: 1
       Maximum Velocity Error:  0.32E-02 on Mesh 1 at (19,36,1)
       Maximum Pressure Error:  0.64E+02 on Mesh 1 at (19,19,1)
       ---------------------------------------------------------------
       Max CFL number:  0.27E-01 at (3,30,16)
       Max divergence:  0.22E+01 at (20,20,1)
       Min divergence: -0.12E-05 at (26,19,4)
       Max VN number :  0.26E-01 at (3,35,1)
 
       Time Step        3   February 26, 2026  16:59:34
       Step Size:  0.116E+00 s, Total Time:    0.34679 s
       Pressure Iterations: 1
       Maximum Velocity Error:  0.60E-02 on Mesh 1 at (36,19,1)
       Maximum Pressure Error:  0.50E+01 on Mesh 1 at (20,17,1)
       ---------------------------------------------------------------
       Max CFL number:  0.45E+00 at (20,20,1)
       Max divergence:  0.37E+01 at (19,18,1)
       Min divergence: -0.11E-05 at (2,12,13)
       Max VN number :  0.61E-01 at (19,19,1)
 
       Time Step        4   February 26, 2026  16:59:34
       Step Size:  0.116E+00 s, Total Time:    0.46238 s
       Pressure Iterations: 1
       Maximum Velocity Error:  0.74E-02 on Mesh 1 at (36,19,1)
       Maximum Pressure Error:  0.28E+02 on Mesh 1 at (19,17,1)
       ---------------------------------------------------------------
       Max CFL number:  0.70E+00 at (20,17,1)
       Max divergence:  0.41E+01 at (18,18,1)
       Min divergence: -0.11E-05 at (2,12,13)
       Max VN number :  0.14E+00 at (19,18,1)
 
       Time Step        5   February 26, 2026  16:59:34
       Step Size:  0.116E+00 s, Total Time:    0.57798 s
       Pressure Iterations: 1
       Maximum Velocity Error:  0.33E-02 on Mesh 1 at (0,14,1)
       Maximum Pressure Error:  0.39E+03 on Mesh 1 at (17,20,1)
       ---------------------------------------------------------------
       Max CFL number:  0.92E+00 at (20,17,1)
       Max divergence:  0.17E+01 at (17,19,2)
       Min divergence: -0.14E-01 at (18,18,1)
       Max VN number :  0.20E+00 at (16,18,1)
 
       Time Step        6   February 26, 2026  16:59:34
       Step Size:  0.676E-01 s, Total Time:    0.64558 s
       Pressure Iterations: 1
       Maximum Velocity Error:  0.46E-02 on Mesh 1 at (36,19,1)
       Maximum Pressure Error:  0.18E+03 on Mesh 1 at (18,18,1)
       ---------------------------------------------------------------
       Max CFL number:  0.70E+00 at (17,17,1)
       Max divergence:  0.34E+01 at (19,20,1)
       Min divergence: -0.72E-06 at (3,1,16)
       Max VN number :  0.25E+00 at (17,17,2)
 
       Time Step        7   February 26, 2026  16:59:34
       Step Size:  0.596E-01 s, Total Time:    0.70516 s
       Pressure Iterations: 1
       Maximum Velocity Error:  0.26E-02 on Mesh 1 at (36,36,1)
       Maximum Pressure Error:  0.40E+03 on Mesh 1 at (18,18,1)
       ---------------------------------------------------------------
       Max CFL number:  0.86E+00 at (17,17,1)
       Max divergence:  0.33E+01 at (17,17,1)
       Min divergence: -0.40E+01 at (19,18,1)
       Max VN number :  0.27E+00 at (20,20,2)
 
       Time Step        8   February 26, 2026  16:59:34
       Step Size:  0.596E-01 s, Total Time:    0.76474 s
       Pressure Iterations: 1
       Maximum Velocity Error:  0.28E-02 on Mesh 1 at (36,36,1)
       Maximum Pressure Error:  0.31E+03 on Mesh 1 at (19,19,1)
       ---------------------------------------------------------------
       Max CFL number:  0.98E+00 at (20,17,1)
       Max divergence:  0.39E+01 at (20,18,1)
       Min divergence: -0.88E+00 at (18,19,1)
       Max VN number :  0.28E+00 at (20,20,2)
 
       Time Step        9   February 26, 2026  16:59:34
       Step Size:  0.596E-01 s, Total Time:    0.82432 s
       Pressure Iterations: 1
       Maximum Velocity Error:  0.30E-02 on Mesh 1 at (36,17,4)
       Maximum Pressure Error:  0.20E+03 on Mesh 1 at (19,19,1)
       ---------------------------------------------------------------
       Max CFL number:  0.10E+01 at (18,17,1)
       Max divergence:  0.38E+01 at (19,19,1)
       Min divergence: -0.22E+00 at (19,18,2)
       Max VN number :  0.32E+00 at (20,20,3)
 
       Time Step       10   February 26, 2026  16:59:34
       Step Size:  0.439E-01 s, Total Time:    0.86825 s
       Pressure Iterations: 1
       Maximum Velocity Error:  0.29E-02 on Mesh 1 at (36,36,1)
       Maximum Pressure Error:  0.30E+03 on Mesh 1 at (19,19,1)
       ---------------------------------------------------------------
       Max CFL number:  0.87E+00 at (19,19,1)
       Max divergence:  0.44E+01 at (19,20,1)
       Min divergence: -0.25E+01 at (18,18,2)
       Max VN number :  0.23E+00 at (20,20,3)
 
       Time Step       20   February 26, 2026  16:59:35
       Step Size:  0.208E-01 s, Total Time:    1.13608 s
       Pressure Iterations: 1
       Maximum Velocity Error:  0.25E-02 on Mesh 1 at (36,18,1)
       Maximum Pressure Error:  0.11E+03 on Mesh 1 at (18,18,1)
       ---------------------------------------------------------------
       Max CFL number:  0.97E+00 at (18,19,5)
       Max divergence:  0.57E+01 at (20,19,1)
       Min divergence: -0.12E+01 at (18,18,5)
       Max VN number :  0.20E+00 at (18,19,4)
 
       Time Step       30   February 26, 2026  16:59:36
       Step Size:  0.173E-01 s, Total Time:    1.30936 s
       Pressure Iterations: 1
       Maximum Velocity Error:  0.39E-02 on Mesh 1 at (36,1,1)
       Maximum Pressure Error:  0.14E+03 on Mesh 1 at (18,19,9)
       ---------------------------------------------------------------
       Max CFL number:  0.95E+00 at (18,18,8)
       Max divergence:  0.61E+01 at (19,20,1)
       Min divergence: -0.10E+01 at (19,19,5)
       Max VN number :  0.21E+00 at (18,18,7)
 
       Time Step       40   February 26, 2026  16:59:36
       Step Size:  0.152E-01 s, Total Time:    1.47845 s
       Pressure Iterations: 1
       Maximum Velocity Error:  0.14E-02 on Mesh 1 at (36,1,1)
       Maximum Pressure Error:  0.24E+03 on Mesh 1 at (18,18,8)
       ---------------------------------------------------------------
       Max CFL number:  0.91E+00 at (18,18,8)
       Max divergence:  0.63E+01 at (17,19,1)
       Min divergence: -0.23E+01 at (18,18,7)
       Max VN number :  0.29E+00 at (19,19,13)
 
       Time Step       50   February 26, 2026  16:59:37
       Step Size:  0.118E-01 s, Total Time:    1.60732 s
       Pressure Iterations: 1
       Maximum Velocity Error:  0.46E-03 on Mesh 1 at (36,19,1)
       Maximum Pressure Error:  0.17E+03 on Mesh 1 at (19,19,17)
       ---------------------------------------------------------------
       Max CFL number:  0.89E+00 at (18,18,11)
       Max divergence:  0.62E+01 at (20,18,1)
       Min divergence: -0.19E+01 at (19,18,17)
       Max VN number :  0.25E+00 at (19,19,17)
 
       Time Step       60   February 26, 2026  16:59:37
       Step Size:  0.118E-01 s, Total Time:    1.72503 s
       Pressure Iterations: 1
       Maximum Velocity Error:  0.78E-03 on Mesh 1 at (36,36,1)
       Maximum Pressure Error:  0.15E+03 on Mesh 1 at (18,19,20)
       ---------------------------------------------------------------
       Max CFL number:  0.84E+00 at (18,18,19)
       Max divergence:  0.64E+01 at (18,20,1)
       Min divergence: -0.21E+01 at (18,19,7)
       Max VN number :  0.23E+00 at (18,18,18)
 
       Time Step       70   February 26, 2026  16:59:38
       Step Size:  0.129E-01 s, Total Time:    1.84628 s
       Pressure Iterations: 1
       Maximum Velocity Error:  0.28E-02 on Mesh 1 at (36,18,1)
       Maximum Pressure Error:  0.17E+03 on Mesh 1 at (18,18,10)
       ---------------------------------------------------------------
       Max CFL number:  0.87E+00 at (18,18,19)
       Max divergence:  0.65E+01 at (19,17,1)
       Min divergence: -0.28E+01 at (19,19,12)
       Max VN number :  0.23E+00 at (17,18,19)
 
       Time Step       80   February 26, 2026  16:59:38
       Step Size:  0.127E-01 s, Total Time:    1.98166 s
       Pressure Iterations: 1
       Maximum Velocity Error:  0.30E-02 on Mesh 1 at (36,1,1)
       Maximum Pressure Error:  0.16E+03 on Mesh 1 at (18,18,15)
       ---------------------------------------------------------------
       Max CFL number:  0.88E+00 at (18,18,13)
       Max divergence:  0.66E+01 at (19,17,1)
       Min divergence: -0.21E+01 at (18,18,9)
       Max VN number :  0.21E+00 at (18,18,13)
 
       Time Step       90   February 26, 2026  16:59:39
       Step Size:  0.127E-01 s, Total Time:    2.10823 s
       Pressure Iterations: 1
       Maximum Velocity Error:  0.37E-02 on Mesh 1 at (36,1,1)
       Maximum Pressure Error:  0.12E+03 on Mesh 1 at (18,18,14)
       ---------------------------------------------------------------
       Max CFL number:  0.89E+00 at (18,18,18)
       Max divergence:  0.67E+01 at (19,17,1)
       Min divergence: -0.21E+01 at (19,19,17)
       Max VN number :  0.22E+00 at (18,18,18)
 
       Time Step      100   February 26, 2026  16:59:40
       Step Size:  0.127E-01 s, Total Time:    2.23479 s
       Pressure Iterations: 1
       Maximum Velocity Error:  0.79E-03 on Mesh 1 at (0,36,1)
       Maximum Pressure Error:  0.10E+03 on Mesh 1 at (19,19,16)
       ---------------------------------------------------------------
       Max CFL number:  0.88E+00 at (19,19,17)
       Max divergence:  0.67E+01 at (18,17,1)
       Min divergence: -0.18E+01 at (19,19,13)
       Max VN number :  0.19E+00 at (19,19,17)
 
       Time Step      200   February 26, 2026  16:59:46
       Step Size:  0.122E-01 s, Total Time:    3.51285 s
       Pressure Iterations: 1
       Maximum Velocity Error:  0.73E-03 on Mesh 1 at (36,19,1)
       Maximum Pressure Error:  0.17E+03 on Mesh 1 at (19,17,18)
       ---------------------------------------------------------------
       Max CFL number:  0.87E+00 at (19,18,20)
       Max divergence:  0.70E+01 at (19,17,1)
       Min divergence: -0.25E+01 at (19,18,9)
       Max VN number :  0.21E+00 at (18,19,14)
 
       Time Step      300   February 26, 2026  16:59:52
       Step Size:  0.122E-01 s, Total Time:    4.75135 s
       Pressure Iterations: 1
       Maximum Velocity Error:  0.22E-02 on Mesh 1 at (36,18,1)
       Maximum Pressure Error:  0.16E+03 on Mesh 1 at (18,17,15)
       ---------------------------------------------------------------
       Max CFL number:  0.81E+00 at (18,18,16)
       Max divergence:  0.70E+01 at (20,19,1)
       Min divergence: -0.28E+01 at (19,19,9)
       Max VN number :  0.21E+00 at (18,17,14)
 
       Time Step      400   February 26, 2026  16:59:58
       Step Size:  0.130E-01 s, Total Time:    6.00791 s
       Pressure Iterations: 1
       Maximum Velocity Error:  0.41E-03 on Mesh 1 at (36,36,5)
       Maximum Pressure Error:  0.39E+03 on Mesh 1 at (17,18,13)
       ---------------------------------------------------------------
       Max CFL number:  0.98E+00 at (19,17,20)
       Max divergence:  0.70E+01 at (20,19,1)
       Min divergence: -0.38E+01 at (18,18,10)
       Max VN number :  0.28E+00 at (17,18,12)
 
       Time Step      500   February 26, 2026  17:00:04
       Step Size:  0.131E-01 s, Total Time:    7.17741 s
       Pressure Iterations: 1
       Maximum Velocity Error:  0.53E-02 on Mesh 1 at (36,1,1)
       Maximum Pressure Error:  0.15E+03 on Mesh 1 at (19,19,7)
       ---------------------------------------------------------------
       Max CFL number:  0.87E+00 at (19,19,9)
       Max divergence:  0.70E+01 at (19,17,1)
       Min divergence: -0.27E+01 at (19,19,9)
       Max VN number :  0.30E+00 at (18,19,10)
 
       Time Step      600   February 26, 2026  17:00:10
       Step Size:  0.123E-01 s, Total Time:    8.42832 s
       Pressure Iterations: 1
       Maximum Velocity Error:  0.23E-02 on Mesh 1 at (36,36,1)
       Maximum Pressure Error:  0.19E+03 on Mesh 1 at (20,21,12)
       ---------------------------------------------------------------
       Max CFL number:  0.84E+00 at (19,21,16)
       Max divergence:  0.77E+01 at (19,17,1)
       Min divergence: -0.23E+01 at (19,21,17)
       Max VN number :  0.29E+00 at (19,21,17)
 
       Time Step      700   February 26, 2026  17:00:16
       Step Size:  0.131E-01 s, Total Time:    9.73754 s
       Pressure Iterations: 1
       Maximum Velocity Error:  0.35E-02 on Mesh 1 at (36,36,1)
       Maximum Pressure Error:  0.30E+03 on Mesh 1 at (17,18,11)
       ---------------------------------------------------------------
       Max CFL number:  0.85E+00 at (18,18,10)
       Max divergence:  0.70E+01 at (20,18,1)
       Min divergence: -0.36E+01 at (18,19,8)
       Max VN number :  0.34E+00 at (18,15,18)
 
       Time Step      800   February 26, 2026  17:00:23
       Step Size:  0.121E-01 s, Total Time:   10.99268 s
       Pressure Iterations: 1
       Maximum Velocity Error:  0.21E-02 on Mesh 1 at (36,19,2)
       Maximum Pressure Error:  0.21E+03 on Mesh 1 at (21,17,18)
       ---------------------------------------------------------------
       Max CFL number:  0.89E+00 at (21,17,17)
       Max divergence:  0.73E+01 at (20,19,1)
       Min divergence: -0.23E+01 at (21,17,18)
       Max VN number :  0.29E+00 at (21,17,17)
 
       Time Step      900   February 26, 2026  17:00:30
       Step Size:  0.144E-01 s, Total Time:   12.25798 s
       Pressure Iterations: 1
       Maximum Velocity Error:  0.19E-02 on Mesh 1 at (4,0,1)
       Maximum Pressure Error:  0.16E+03 on Mesh 1 at (20,19,9)
       ---------------------------------------------------------------
       Max CFL number:  0.90E+00 at (17,19,20)
       Max divergence:  0.68E+01 at (19,20,1)
       Min divergence: -0.26E+01 at (19,19,1)
       Max VN number :  0.27E+00 at (21,17,8)
 
       Time Step     1000   February 26, 2026  17:00:38
       Step Size:  0.128E-01 s, Total Time:   13.62501 s
       Pressure Iterations: 1
       Maximum Velocity Error:  0.11E-02 on Mesh 1 at (36,1,1)
       Maximum Pressure Error:  0.31E+03 on Mesh 1 at (18,19,7)
       ---------------------------------------------------------------
       Max CFL number:  0.87E+00 at (20,18,12)
       Max divergence:  0.78E+01 at (18,18,1)
       Min divergence: -0.29E+01 at (19,19,1)
       Max VN number :  0.25E+00 at (20,16,19)
 
       Time Step     1100   February 26, 2026  17:00:45
       Step Size:  0.161E-01 s, Total Time:   15.01554 s
       Pressure Iterations: 1
       Maximum Velocity Error:  0.51E-02 on Mesh 1 at (36,1,1)
       Maximum Pressure Error:  0.12E+03 on Mesh 1 at (20,19,9)
       ---------------------------------------------------------------
       Max CFL number:  0.89E+00 at (21,18,16)
       Max divergence:  0.70E+01 at (18,17,1)
       Min divergence: -0.27E+01 at (19,18,1)
       Max VN number :  0.25E+00 at (20,17,10)
 
       Time Step     1200   February 26, 2026  17:00:52
       Step Size:  0.137E-01 s, Total Time:   16.44441 s
       Pressure Iterations: 1
       Maximum Velocity Error:  0.27E-02 on Mesh 1 at (36,18,1)
       Maximum Pressure Error:  0.37E+03 on Mesh 1 at (21,18,12)
       ---------------------------------------------------------------
       Max CFL number:  0.99E+00 at (21,18,10)
       Max divergence:  0.82E+01 at (19,20,1)
       Min divergence: -0.36E+01 at (20,18,8)
       Max VN number :  0.29E+00 at (21,18,10)
 
       Time Step     1300   February 26, 2026  17:00:59
       Step Size:  0.138E-01 s, Total Time:   17.70911 s
       Pressure Iterations: 1
       Maximum Velocity Error:  0.34E-02 on Mesh 1 at (36,36,1)
       Maximum Pressure Error:  0.27E+03 on Mesh 1 at (19,20,9)
       ---------------------------------------------------------------
       Max CFL number:  0.85E+00 at (19,19,19)
       Max divergence:  0.77E+01 at (20,19,1)
       Min divergence: -0.28E+01 at (19,19,7)
       Max VN number :  0.29E+00 at (18,21,20)
 
       Time Step     1400   February 26, 2026  17:01:05
       Step Size:  0.129E-01 s, Total Time:   19.10127 s
       Pressure Iterations: 1
       Maximum Velocity Error:  0.30E-02 on Mesh 1 at (36,1,1)
       Maximum Pressure Error:  0.94E+02 on Mesh 1 at (20,18,12)
       ---------------------------------------------------------------
       Max CFL number:  0.81E+00 at (20,19,20)
       Max divergence:  0.77E+01 at (17,20,1)
       Min divergence: -0.34E+01 at (19,19,1)
       Max VN number :  0.22E+00 at (21,17,11)
 
       Time Step     1500   February 26, 2026  17:01:12
       Step Size:  0.149E-01 s, Total Time:   20.49768 s
       Pressure Iterations: 1
       Maximum Velocity Error:  0.20E-02 on Mesh 1 at (36,20,1)
       Maximum Pressure Error:  0.25E+03 on Mesh 1 at (20,22,14)
       ---------------------------------------------------------------
       Max CFL number:  0.94E+00 at (20,22,13)
       Max divergence:  0.77E+01 at (19,17,1)
       Min divergence: -0.40E+01 at (20,22,14)
       Max VN number :  0.41E+00 at (20,22,13)
 
       Time Step     1600   February 26, 2026  17:01:20
       Step Size:  0.130E-01 s, Total Time:   21.92778 s
       Pressure Iterations: 1
       Maximum Velocity Error:  0.41E-02 on Mesh 1 at (36,36,1)
       Maximum Pressure Error:  0.34E+03 on Mesh 1 at (18,18,1)
       ---------------------------------------------------------------
       Max CFL number:  0.88E+00 at (20,17,19)
       Max divergence:  0.77E+01 at (17,19,1)
       Min divergence: -0.30E+01 at (20,18,1)
       Max VN number :  0.25E+00 at (21,19,18)
 
       Time Step     1700   February 26, 2026  17:01:28
       Step Size:  0.133E-01 s, Total Time:   23.29155 s
       Pressure Iterations: 1
       Maximum Velocity Error:  0.34E-02 on Mesh 1 at (36,19,1)
       Maximum Pressure Error:  0.32E+03 on Mesh 1 at (19,19,10)
       ---------------------------------------------------------------
       Max CFL number:  0.90E+00 at (19,19,10)
       Max divergence:  0.78E+01 at (18,17,1)
       Min divergence: -0.38E+01 at (19,18,2)
       Max VN number :  0.24E+00 at (18,19,11)
 
       Time Step     1800   February 26, 2026  17:01:36
       Step Size:  0.150E-01 s, Total Time:   24.66699 s
       Pressure Iterations: 1
       Maximum Velocity Error:  0.19E-02 on Mesh 1 at (36,1,9)
       Maximum Pressure Error:  0.13E+03 on Mesh 1 at (20,18,6)
       ---------------------------------------------------------------
       Max CFL number:  0.89E+00 at (23,19,19)
       Max divergence:  0.75E+01 at (18,18,1)
       Min divergence: -0.32E+01 at (19,19,7)
       Max VN number :  0.31E+00 at (19,18,7)
 
       Time Step     1900   February 26, 2026  17:01:44
       Step Size:  0.150E-01 s, Total Time:   26.11031 s
       Pressure Iterations: 1
       Maximum Velocity Error:  0.31E-02 on Mesh 1 at (36,36,1)
       Maximum Pressure Error:  0.18E+03 on Mesh 1 at (18,18,3)
       ---------------------------------------------------------------
       Max CFL number:  0.83E+00 at (19,19,13)
       Max divergence:  0.78E+01 at (19,18,1)
       Min divergence: -0.23E+01 at (20,19,9)
       Max VN number :  0.28E+00 at (19,19,13)
 
       Time Step     2000   February 26, 2026  17:01:53
       Step Size:  0.143E-01 s, Total Time:   27.51922 s
       Pressure Iterations: 1
       Maximum Velocity Error:  0.65E-02 on Mesh 1 at (36,1,1)
       Maximum Pressure Error:  0.37E+03 on Mesh 1 at (18,18,1)
       ---------------------------------------------------------------
       Max CFL number:  0.86E+00 at (20,19,20)
       Max divergence:  0.71E+01 at (18,17,1)
       Min divergence: -0.23E+01 at (21,19,9)
       Max VN number :  0.24E+00 at (18,17,10)
 
       Time Step     2100   February 26, 2026  17:02:01
       Step Size:  0.133E-01 s, Total Time:   28.87563 s
       Pressure Iterations: 1
       Maximum Velocity Error:  0.47E-02 on Mesh 1 at (36,1,1)
       Maximum Pressure Error:  0.19E+03 on Mesh 1 at (21,17,11)
       ---------------------------------------------------------------
       Max CFL number:  0.86E+00 at (20,18,18)
       Max divergence:  0.76E+01 at (18,20,1)
       Min divergence: -0.30E+01 at (21,17,10)
       Max VN number :  0.27E+00 at (21,17,9)
 
       Time Step     2181   February 26, 2026  17:02:08
       Step Size:  0.578E-02 s, Total Time:   30.00000 s
       Pressure Iterations: 1
       Maximum Velocity Error:  0.39E-02 on Mesh 1 at (36,36,1)
       Maximum Pressure Error:  0.11E+04 on Mesh 1 at (20,19,1)
       ---------------------------------------------------------------
       Max CFL number:  0.38E+00 at (19,18,16)
       Max divergence:  0.71E+01 at (20,20,1)
       Min divergence: -0.25E+01 at (17,17,20)
       Max VN number :  0.13E+00 at (17,16,18)
 


 Time Stepping Wall Clock Time (s):      154.372
 Total Elapsed Wall Clock Time (s):      156.598

STOP: FDS completed successfully (CHID: GEN_DIESEL_large_20260226_165929)
